$DATA1 SOURCE='HSPICE' VERSION='O-2018.09-SP1-1 linux64' PARAM_COUNT=0
.TITLE '*full adder'
 tot_power        power_at_max     temper           alter#          
  5.892e-06        2.667e-04         25.0000        1               
