$DATA1 SOURCE='HSPICE' VERSION='O-2018.09-SP1-1 linux64' PARAM_COUNT=0
.TITLE '*full adder'
 delay_cout       delay_s          temper           alter#          
  8.837e-10        7.914e-10         25.0000        1               
