$DATA1 SOURCE='HSPICE' VERSION='O-2018.09-SP1-1 linux64' PARAM_COUNT=0
.TITLE '*half adder'
 tot_power        power_at_max     temper           alter#          
  1.226e-05        3.134e-04         25.0000        1               
