$DATA1 SOURCE='HSPICE' VERSION='O-2018.09-SP1-1 linux64' PARAM_COUNT=0
.TITLE '** i-v curve of nmos'
 maxderiv         temper           alter#          
  1.410e-02         25.0000        1               
