****** HSPICE -- O-2018.09-SP1-1 linux64 (Dec 28 2018) ******
 Input File: halfadder_delay.sp
 lic:
 lic: FLEXlm: SDK_11.6.9.6
 lic: USER:   centos               HOSTNAME: 2022-szjcdl-23
 lic: HOSTID: 005056a66ba9         PID:      9788
 lic: Using FLEXlm license file:
 lic: 27020@10.15.89.162
 lic: Checkout 1 hspice
 lic: License/Maintenance for hspice will expire on 01-nov-2025/2022.06
 lic: 1(in_use)/40(total) FLOATING license(s) on SERVER 27020@10.15.89.162
 lic:
 init: begin read circuit files, cpu clock= 6.00E-02
       option search = /home/tools/synopsys/hspice/O-2018.09-SP1-1/hspi
                         ce/parts/ad
       option accurate
       option post =     2.00
 init: end read circuit files, cpu clock= 7.00E-02 peak memory=     273 mb
 init: begin check errors, cpu clock= 7.00E-02
 init: end check errors, cpu clock= 7.00E-02 peak memory=     273 mb
 init: begin setup matrix, pivot=     0 cpu clock= 7.00E-02
       establish matrix -- done, cpu clock= 7.00E-02 peak memory=     274 mb
       re-order matrix -- done, cpu clock= 8.00E-02 peak memory=     274 mb
 init: end setup matrix, cpu clock= 8.00E-02 peak memory=     274 mb
 dcop: begin dcop, cpu clock= 8.00E-02
 dcop: end dcop, cpu clock= 8.00E-02 peak memory=     274 mb tot_iter=      13
 output: test_case.tr0
 sweep: tran tran0    begin, stop_t=  2.02E-08 #sweeps=**** cpu clock= 8.00E-02
 tran: time= 2.5086E-09 tot_iter=      16 conv_iter=       8 cpu clock= 8.00E-02
 tran: time= 4.5286E-09 tot_iter=      20 conv_iter=      10 cpu clock= 8.00E-02
 tran: time= 6.1228E-09 tot_iter=     222 conv_iter=      81 cpu clock= 1.00E-01
 tran: time= 8.2179E-09 tot_iter=     255 conv_iter=      96 cpu clock= 1.00E-01
 tran: time= 1.0109E-08 tot_iter=     503 conv_iter=     176 cpu clock= 1.30E-01
 tran: time= 1.2414E-08 tot_iter=     537 conv_iter=     193 cpu clock= 1.40E-01
 tran: time= 1.4900E-08 tot_iter=     545 conv_iter=     197 cpu clock= 1.40E-01
 tran: time= 1.6233E-08 tot_iter=     853 conv_iter=     295 cpu clock= 1.70E-01
 tran: time= 1.8274E-08 tot_iter=     884 conv_iter=     309 cpu clock= 1.80E-01
 tran: time= 2.0200E-08 tot_iter=    1097 conv_iter=     382 cpu clock= 2.00E-01
 sweep: tran tran0    end, cpu clock= 2.00E-01 peak memory=     274 mb
>info:         ***** hspice job concluded
 lic: Release hspice token(s)
