$DATA1 SOURCE='HSPICE' VERSION='O-2018.09-SP1-1 linux64' PARAM_COUNT=0
.TITLE '*half adder'
 delay_cout       delay_s          temper           alter#          
  6.441e-10        7.359e-10         25.0000        1               
